  
       XFOIL         Version 6.99
  
 Calculated polar for: NACA 2412 Airfoil M=2.0% P=40.0% T=12.0%        
  
 1 1 Reynolds number fixed          Mach number fixed         
  
 xtrf =   0.050 (top)        0.050 (bottom)  
 Mach =   0.130     Re =     0.100 e 6     Ncrit =   4.000
  
   alpha    CL        CD       CDp       CM     Top_Xtr  Bot_Xtr
  ------ -------- --------- --------- -------- -------- --------
  -2.000  -0.0259   0.01934   0.00452  -0.0437   0.0500   0.0500
   0.000   0.1784   0.01924   0.00410  -0.0392   0.0500   0.0500
   2.000   0.3805   0.01980   0.00469  -0.0344   0.0500   0.0500
   4.000   0.5778   0.02106   0.00630  -0.0292   0.0500   0.0500
   6.000   0.7610   0.02313   0.00907  -0.0219   0.0500   0.0500
   8.000   0.9183   0.02635   0.01330  -0.0113   0.0500   0.0500
  10.000   1.0287   0.03204   0.02031   0.0037   0.0500   0.0500
  12.000   1.0754   0.04449   0.03399   0.0168   0.0479   0.0500
