  
       XFOIL         Version 6.99
  
 Calculated polar for: NACA 23012  12%                                 
  
 1 1 Reynolds number fixed          Mach number fixed         
  
 xtrf =   0.050 (top)        0.050 (bottom)  
 Mach =   0.100     Re =     0.100 e 6     Ncrit =   4.000
  
   alpha    CL        CD       CDp       CM     Top_Xtr  Bot_Xtr
  ------ -------- --------- --------- -------- -------- --------
  -2.000  -0.0916   0.01935   0.00477  -0.0096   0.0500   0.0500
   0.000   0.1233   0.01922   0.00412  -0.0072   0.0500   0.0500
   2.000   0.3378   0.01985   0.00464  -0.0051   0.0500   0.0500
   4.000   0.5491   0.02118   0.00623  -0.0030   0.0500   0.0500
   6.000   0.7522   0.02330   0.00898  -0.0001   0.0500   0.0500
   8.000   0.9419   0.02648   0.01316   0.0040   0.0500   0.0500
  10.000   1.1035   0.03136   0.01945   0.0106   0.0500   0.0500
  12.000   1.1893   0.04060   0.03030   0.0213   0.0500   0.0500
